<routes>
	<vType id="vtypeauto" accel="5" decel="10" sigma="0.0" length="4"
		   minGap="0" maxSpeed="36" color="1,0,0" probability="1"
		   carFollowModel="CC" tauEngine="0.5" omegaN="0.2" xi="1" c1="0.5"
		   lanesCount="4" ccAccel="4" ploegKp="0.2" ploegKd="0.7"
		   ploegH="0.5" />
	<!-- minGap is controlled by plexe parameters -->
	<!-- <route id="route_0" edges="gneE4 junction_end4"/>
	<route id="route_1" edges="gneE5 junction_end3"/>
	<route id="route_2" edges="gneE6 junction_end2"/>	

	<route id="route_3" edges="gneE7 junction_end1"/>
	
	<route id="route_4" edges="end2_junction junction_end4"/>
	<route id="route_5" edges="end2_junction junction_end3"/>

	<route id="route_6" edges="end3_junction junction_end2"/>
	<route id="route_7" edges="end3_junction junction_end1"/>	
	<route id="route_8" edges="end3_junction junction_end4"/>

	<route id="route_9" edges="end4_junction junction_end3"/>	
	<route id="route_10" edges="end4_junction junction_end2"/>
	<route id="route_11" edges="end4_junction junction_end1"/>
	
	<route id="route_12" edges="end5_junction junction_end6"/>
	<route id="route_13" edges="end5_junction junction_end7"/>
	<route id="route_14" edges="end5_junction junction_end8"/>
	
	<route id="route_15" edges="end6_junction junction_end5"/>
	<route id="route_16" edges="end6_junction junction_end7"/> -->

	
</routes>
