<?xml version="1.0" encoding="UTF-8"?>

<!-- generated on 2021-07-20 05:14:09 by Eclipse SUMO netedit Version 1.9.2
<configuration xmlns:xsi="http://www.w3.org/2001/XMLSchema-instance" xsi:noNamespaceSchemaLocation="http://sumo.dlr.de/xsd/netconvertConfiguration.xsd">

    <output>
        <output-file value="C:\Users\Mahsa\Desktop\Tasks\Crossroad\Deliver\Code\DRI-MSC\mynet7.net.xml"/>
    </output>

    <processing>
        <offset.disable-normalization value="true"/>
    </processing>

    <junctions>
        <no-turnarounds value="true"/>
    </junctions>

    <report>
        <aggregate-warnings value="5"/>
    </report>

</configuration>
-->

<net version="1.9" junctionCornerDetail="5" limitTurnSpeed="5.50" xmlns:xsi="http://www.w3.org/2001/XMLSchema-instance" xsi:noNamespaceSchemaLocation="http://sumo.dlr.de/xsd/net_file.xsd">

    <location netOffset="0.00,0.00" convBoundary="-200.00,0.00,300.00,200.00" origBoundary="10000000000.00,10000000000.00,-10000000000.00,-10000000000.00" projParameter="!"/>

    <edge id=":gneJ1_0" function="internal">
        <lane id=":gneJ1_0_0" index="0" speed="5.91" length="16.00" shape="-108.00,0.00 -92.00,0.00"/>
        <lane id=":gneJ1_0_1" index="1" speed="4.77" length="9.60" shape="-104.80,0.00 -95.20,0.00"/>
        <lane id=":gneJ1_0_2" index="2" speed="3.24" length="3.20" shape="-101.60,0.00 -98.40,0.00"/>
    </edge>
    <edge id=":gneJ10_0" function="internal">
        <lane id=":gneJ10_0_0" index="0" speed="6.51" length="9.03" shape="192.00,113.60 191.65,111.15 190.60,109.40 188.85,108.35 186.40,108.00"/>
    </edge>
    <edge id=":gneJ10_1" function="internal">
        <lane id=":gneJ10_1_0" index="0" speed="13.89" length="27.20" shape="192.00,113.60 192.00,86.40"/>
        <lane id=":gneJ10_1_1" index="1" speed="13.89" length="27.20" shape="195.20,113.60 195.20,86.40"/>
        <lane id=":gneJ10_1_2" index="2" speed="13.89" length="27.20" shape="198.40,113.60 198.40,86.40"/>
    </edge>
    <edge id=":gneJ10_4" function="internal">
        <lane id=":gneJ10_4_0" index="0" speed="10.36" length="7.98" shape="198.40,113.60 199.35,106.95 200.00,105.87"/>
    </edge>
    <edge id=":gneJ10_26" function="internal">
        <lane id=":gneJ10_26_0" index="0" speed="10.36" length="16.53" shape="200.00,105.87 202.20,102.20 206.95,99.35 213.60,98.40"/>
    </edge>
    <edge id=":gneJ10_5" function="internal">
        <lane id=":gneJ10_5_0" index="0" speed="6.51" length="9.03" shape="213.60,108.00 211.15,108.35 209.40,109.40 208.35,111.15 208.00,113.60"/>
    </edge>
    <edge id=":gneJ10_6" function="internal">
        <lane id=":gneJ10_6_0" index="0" speed="13.89" length="27.20" shape="213.60,108.00 186.40,108.00"/>
        <lane id=":gneJ10_6_1" index="1" speed="13.89" length="27.20" shape="213.60,104.80 186.40,104.80"/>
        <lane id=":gneJ10_6_2" index="2" speed="13.89" length="27.20" shape="213.60,101.60 186.40,101.60"/>
    </edge>
    <edge id=":gneJ10_9" function="internal">
        <lane id=":gneJ10_9_0" index="0" speed="10.36" length="7.98" shape="213.60,101.60 206.95,100.65 205.87,100.00"/>
    </edge>
    <edge id=":gneJ10_27" function="internal">
        <lane id=":gneJ10_27_0" index="0" speed="10.36" length="16.53" shape="205.87,100.00 202.20,97.80 199.35,93.05 198.40,86.40"/>
    </edge>
    <edge id=":gneJ10_10" function="internal">
        <lane id=":gneJ10_10_0" index="0" speed="6.51" length="9.03" shape="208.00,86.40 208.35,88.85 209.40,90.60 211.15,91.65 213.60,92.00"/>
    </edge>
    <edge id=":gneJ10_11" function="internal">
        <lane id=":gneJ10_11_0" index="0" speed="13.89" length="27.20" shape="208.00,86.40 208.00,113.60"/>
        <lane id=":gneJ10_11_1" index="1" speed="13.89" length="27.20" shape="204.80,86.40 204.80,113.60"/>
        <lane id=":gneJ10_11_2" index="2" speed="13.89" length="27.20" shape="201.60,86.40 201.60,113.60"/>
    </edge>
    <edge id=":gneJ10_14" function="internal">
        <lane id=":gneJ10_14_0" index="0" speed="10.88" length="9.57" shape="201.60,86.40 200.65,94.45 200.00,95.76"/>
    </edge>
    <edge id=":gneJ10_28" function="internal">
        <lane id=":gneJ10_28_0" index="0" speed="10.88" length="17.57" shape="200.00,95.76 197.80,100.20 193.05,103.65 186.40,104.80"/>
    </edge>
    <edge id=":gneJ10_15" function="internal">
        <lane id=":gneJ10_15_0" index="0" speed="6.51" length="9.03" shape="186.40,92.00 188.85,91.65 190.60,90.60 191.65,88.85 192.00,86.40"/>
    </edge>
    <edge id=":gneJ10_16" function="internal">
        <lane id=":gneJ10_16_0" index="0" speed="13.89" length="27.20" shape="186.40,92.00 213.60,92.00"/>
        <lane id=":gneJ10_16_1" index="1" speed="13.89" length="27.20" shape="186.40,95.20 213.60,95.20"/>
        <lane id=":gneJ10_16_2" index="2" speed="13.89" length="27.20" shape="186.40,98.40 213.60,98.40"/>
    </edge>
    <edge id=":gneJ10_19" function="internal">
        <lane id=":gneJ10_19_0" index="0" speed="10.60" length="6.95" shape="186.40,98.40 192.63,99.71 193.14,100.00"/>
    </edge>
    <edge id=":gneJ10_29" function="internal">
        <lane id=":gneJ10_29_0" index="0" speed="10.60" length="18.74" shape="193.14,100.00 198.58,103.15 203.04,108.02 204.80,113.60"/>
    </edge>
    <edge id=":gneJ10_20" function="internal">
        <lane id=":gneJ10_20_0" index="0" speed="7.33" length="11.73" shape="186.40,92.00 190.25,91.65 193.00,90.60 194.65,88.85 195.20,86.40"/>
    </edge>
    <edge id=":gneJ10_21" function="internal">
        <lane id=":gneJ10_21_0" index="0" speed="13.89" length="27.45" shape="186.40,92.00 194.50,92.50 200.00,93.60 205.50,94.70 213.60,95.20"/>
        <lane id=":gneJ10_21_1" index="1" speed="13.89" length="27.45" shape="186.40,95.20 194.50,95.70 200.00,96.80 205.50,97.90 213.60,98.40"/>
    </edge>
    <edge id=":gneJ10_23" function="internal">
        <lane id=":gneJ10_23_0" index="0" speed="11.36" length="29.67" shape="186.40,95.20 194.45,96.35 200.20,99.80 203.65,105.55 204.80,113.60"/>
        <lane id=":gneJ10_23_1" index="1" speed="10.36" length="24.51" shape="186.40,98.40 193.05,99.35 197.80,102.20 200.65,106.95 201.60,113.60"/>
    </edge>
    <edge id=":gneJ10_25" function="internal">
        <lane id=":gneJ10_25_0" index="0" speed="3.24" length="3.20" shape="186.40,98.40 186.40,101.60"/>
    </edge>
    <edge id=":gneJ12_0" function="internal">
        <lane id=":gneJ12_0_0" index="0" speed="6.51" length="9.03" shape="113.60,108.00 111.15,108.35 109.40,109.40 108.35,111.15 108.00,113.60"/>
    </edge>
    <edge id=":gneJ12_1" function="internal">
        <lane id=":gneJ12_1_0" index="0" speed="13.89" length="27.20" shape="113.60,108.00 86.40,108.00"/>
        <lane id=":gneJ12_1_1" index="1" speed="13.89" length="27.20" shape="113.60,104.80 86.40,104.80"/>
        <lane id=":gneJ12_1_2" index="2" speed="13.89" length="27.20" shape="113.60,101.60 86.40,101.60"/>
    </edge>
    <edge id=":gneJ12_4" function="internal">
        <lane id=":gneJ12_4_0" index="0" speed="10.88" length="9.57" shape="113.60,101.60 105.55,100.65 104.24,100.00"/>
        <lane id=":gneJ12_4_1" index="1" speed="10.36" length="7.98" shape="113.60,101.60 106.95,100.65 105.87,100.00"/>
    </edge>
    <edge id=":gneJ12_17" function="internal">
        <lane id=":gneJ12_17_0" index="0" speed="10.88" length="17.57" shape="104.24,100.00 99.80,97.80 96.35,93.05 95.20,86.40"/>
    </edge>
    <edge id=":gneJ12_18" function="internal">
        <lane id=":gneJ12_18_0" index="0" speed="10.36" length="16.53" shape="105.87,100.00 102.20,97.80 99.35,93.05 98.40,86.40"/>
    </edge>
    <edge id=":gneJ12_6" function="internal">
        <lane id=":gneJ12_6_0" index="0" speed="6.51" length="9.03" shape="108.00,86.40 108.35,88.85 109.40,90.60 111.15,91.65 113.60,92.00"/>
    </edge>
    <edge id=":gneJ12_7" function="internal">
        <lane id=":gneJ12_7_0" index="0" speed="13.89" length="27.20" shape="108.00,86.40 108.00,113.60"/>
        <lane id=":gneJ12_7_1" index="1" speed="13.89" length="27.20" shape="104.80,86.40 104.80,113.60"/>
        <lane id=":gneJ12_7_2" index="2" speed="13.89" length="27.20" shape="101.60,86.40 101.60,113.60"/>
    </edge>
    <edge id=":gneJ12_10" function="internal">
        <lane id=":gneJ12_10_0" index="0" speed="10.88" length="27.14" shape="101.60,86.40 100.65,94.45 97.80,100.20 93.05,103.65 86.40,104.80"/>
        <lane id=":gneJ12_10_1" index="1" speed="10.36" length="24.51" shape="101.60,86.40 100.65,93.05 97.80,97.80 93.05,100.65 86.40,101.60"/>
    </edge>
    <edge id=":gneJ12_12" function="internal">
        <lane id=":gneJ12_12_0" index="0" speed="6.51" length="9.03" shape="86.40,92.00 88.85,91.65 90.60,90.60 91.65,88.85 92.00,86.40"/>
    </edge>
    <edge id=":gneJ12_13" function="internal">
        <lane id=":gneJ12_13_0" index="0" speed="13.89" length="27.20" shape="86.40,92.00 113.60,92.00"/>
        <lane id=":gneJ12_13_1" index="1" speed="13.89" length="27.20" shape="86.40,95.20 113.60,95.20"/>
        <lane id=":gneJ12_13_2" index="2" speed="13.89" length="27.20" shape="86.40,98.40 113.60,98.40"/>
    </edge>
    <edge id=":gneJ12_16" function="internal">
        <lane id=":gneJ12_16_0" index="0" speed="10.36" length="7.98" shape="86.40,98.40 93.05,99.35 94.13,100.00"/>
    </edge>
    <edge id=":gneJ12_19" function="internal">
        <lane id=":gneJ12_19_0" index="0" speed="10.36" length="16.53" shape="94.13,100.00 97.80,102.20 100.65,106.95 101.60,113.60"/>
    </edge>
    <edge id=":gneJ13_0" function="internal">
        <lane id=":gneJ13_0_0" index="0" speed="6.51" length="9.03" shape="-86.40,108.00 -88.85,108.35 -90.60,109.40 -91.65,111.15 -92.00,113.60"/>
    </edge>
    <edge id=":gneJ13_1" function="internal">
        <lane id=":gneJ13_1_0" index="0" speed="13.89" length="27.20" shape="-86.40,108.00 -113.60,108.00"/>
        <lane id=":gneJ13_1_1" index="1" speed="13.89" length="27.20" shape="-86.40,104.80 -113.60,104.80"/>
        <lane id=":gneJ13_1_2" index="2" speed="13.89" length="27.20" shape="-86.40,101.60 -113.60,101.60"/>
    </edge>
    <edge id=":gneJ13_4" function="internal">
        <lane id=":gneJ13_4_0" index="0" speed="10.88" length="9.57" shape="-86.40,101.60 -94.45,100.65 -95.76,100.00"/>
        <lane id=":gneJ13_4_1" index="1" speed="10.36" length="7.98" shape="-86.40,101.60 -93.05,100.65 -94.13,100.00"/>
    </edge>
    <edge id=":gneJ13_17" function="internal">
        <lane id=":gneJ13_17_0" index="0" speed="10.88" length="17.57" shape="-95.76,100.00 -100.20,97.80 -103.65,93.05 -104.80,86.40"/>
    </edge>
    <edge id=":gneJ13_18" function="internal">
        <lane id=":gneJ13_18_0" index="0" speed="10.36" length="16.53" shape="-94.13,100.00 -97.80,97.80 -100.65,93.05 -101.60,86.40"/>
    </edge>
    <edge id=":gneJ13_6" function="internal">
        <lane id=":gneJ13_6_0" index="0" speed="6.51" length="9.03" shape="-92.00,86.40 -91.65,88.85 -90.60,90.60 -88.85,91.65 -86.40,92.00"/>
    </edge>
    <edge id=":gneJ13_7" function="internal">
        <lane id=":gneJ13_7_0" index="0" speed="13.89" length="27.20" shape="-92.00,86.40 -92.00,113.60"/>
        <lane id=":gneJ13_7_1" index="1" speed="13.89" length="27.20" shape="-95.20,86.40 -95.20,113.60"/>
        <lane id=":gneJ13_7_2" index="2" speed="13.89" length="27.20" shape="-98.40,86.40 -98.40,113.60"/>
    </edge>
    <edge id=":gneJ13_10" function="internal">
        <lane id=":gneJ13_10_0" index="0" speed="10.88" length="27.14" shape="-98.40,86.40 -99.35,94.45 -102.20,100.20 -106.95,103.65 -113.60,104.80"/>
        <lane id=":gneJ13_10_1" index="1" speed="10.36" length="24.51" shape="-98.40,86.40 -99.35,93.05 -102.20,97.80 -106.95,100.65 -113.60,101.60"/>
    </edge>
    <edge id=":gneJ13_12" function="internal">
        <lane id=":gneJ13_12_0" index="0" speed="6.51" length="9.03" shape="-113.60,92.00 -111.15,91.65 -109.40,90.60 -108.35,88.85 -108.00,86.40"/>
    </edge>
    <edge id=":gneJ13_13" function="internal">
        <lane id=":gneJ13_13_0" index="0" speed="13.89" length="27.20" shape="-113.60,92.00 -86.40,92.00"/>
        <lane id=":gneJ13_13_1" index="1" speed="13.89" length="27.20" shape="-113.60,95.20 -86.40,95.20"/>
        <lane id=":gneJ13_13_2" index="2" speed="13.89" length="27.20" shape="-113.60,98.40 -86.40,98.40"/>
    </edge>
    <edge id=":gneJ13_16" function="internal">
        <lane id=":gneJ13_16_0" index="0" speed="10.36" length="7.98" shape="-113.60,98.40 -106.95,99.35 -105.87,100.00"/>
    </edge>
    <edge id=":gneJ13_19" function="internal">
        <lane id=":gneJ13_19_0" index="0" speed="10.36" length="16.53" shape="-105.87,100.00 -102.20,102.20 -99.35,106.95 -98.40,113.60"/>
    </edge>
    <edge id=":gneJ2_0" function="internal">
        <lane id=":gneJ2_0_0" index="0" speed="5.91" length="16.00" shape="-200.00,108.00 -200.00,92.00"/>
        <lane id=":gneJ2_0_1" index="1" speed="4.77" length="9.60" shape="-200.00,104.80 -200.00,95.20"/>
        <lane id=":gneJ2_0_2" index="2" speed="3.24" length="3.20" shape="-200.00,101.60 -200.00,98.40"/>
    </edge>
    <edge id=":gneJ3_0" function="internal">
        <lane id=":gneJ3_0_0" index="0" speed="6.51" length="9.03" shape="13.60,108.00 11.15,108.35 9.40,109.40 8.35,111.15 8.00,113.60"/>
    </edge>
    <edge id=":gneJ3_1" function="internal">
        <lane id=":gneJ3_1_0" index="0" speed="13.89" length="27.20" shape="13.60,108.00 -13.60,108.00"/>
        <lane id=":gneJ3_1_1" index="1" speed="13.89" length="27.20" shape="13.60,104.80 -13.60,104.80"/>
        <lane id=":gneJ3_1_2" index="2" speed="13.89" length="27.20" shape="13.60,101.60 -13.60,101.60"/>
    </edge>
    <edge id=":gneJ3_4" function="internal">
        <lane id=":gneJ3_4_0" index="0" speed="10.36" length="9.13" shape="13.60,101.60 6.95,100.65 4.88,99.41"/>
    </edge>
    <edge id=":gneJ3_5" function="internal">
        <lane id=":gneJ3_5_0" index="0" speed="3.24" length="3.20" shape="13.60,101.60 13.60,98.40"/>
    </edge>
    <edge id=":gneJ3_25" function="internal">
        <lane id=":gneJ3_25_0" index="0" speed="10.36" length="15.38" shape="4.88,99.41 2.20,97.80 -0.65,93.05 -1.60,86.40"/>
    </edge>
    <edge id=":gneJ3_6" function="internal">
        <lane id=":gneJ3_6_0" index="0" speed="6.51" length="9.03" shape="8.00,86.40 8.35,88.85 9.40,90.60 11.15,91.65 13.60,92.00"/>
    </edge>
    <edge id=":gneJ3_7" function="internal">
        <lane id=":gneJ3_7_0" index="0" speed="6.51" length="9.03" shape="8.00,86.40 8.35,88.85 9.40,90.60 11.15,91.65 13.60,92.00"/>
        <lane id=":gneJ3_7_1" index="1" speed="8.00" length="14.19" shape="4.80,86.40 5.35,90.25 7.00,93.00 9.75,94.65 13.60,95.20"/>
    </edge>
    <edge id=":gneJ3_9" function="internal">
        <lane id=":gneJ3_9_0" index="0" speed="13.89" length="27.20" shape="4.80,86.40 4.80,113.60"/>
        <lane id=":gneJ3_9_1" index="1" speed="13.89" length="27.20" shape="1.60,86.40 1.60,113.60"/>
    </edge>
    <edge id=":gneJ3_11" function="internal">
        <lane id=":gneJ3_11_0" index="0" speed="10.88" length="27.14" shape="1.60,86.40 0.65,94.45 -2.20,100.20 -6.95,103.65 -13.60,104.80"/>
    </edge>
    <edge id=":gneJ3_12" function="internal">
        <lane id=":gneJ3_12_0" index="0" speed="6.51" length="9.03" shape="-13.60,92.00 -11.15,91.65 -9.40,90.60 -8.35,88.85 -8.00,86.40"/>
    </edge>
    <edge id=":gneJ3_13" function="internal">
        <lane id=":gneJ3_13_0" index="0" speed="13.89" length="27.45" shape="-13.60,92.00 -5.50,92.50 0.00,93.60 5.50,94.70 13.60,95.20"/>
        <lane id=":gneJ3_13_1" index="1" speed="13.89" length="27.45" shape="-13.60,95.20 -5.50,95.70 0.00,96.80 5.50,97.90 13.60,98.40"/>
    </edge>
    <edge id=":gneJ3_15" function="internal">
        <lane id=":gneJ3_15_0" index="0" speed="13.89" length="27.20" shape="-13.60,95.20 13.60,95.20"/>
    </edge>
    <edge id=":gneJ3_16" function="internal">
        <lane id=":gneJ3_16_0" index="0" speed="11.36" length="15.07" shape="-13.60,95.20 -5.55,96.35 0.20,99.80 0.32,100.00"/>
        <lane id=":gneJ3_16_1" index="1" speed="10.36" length="7.98" shape="-13.60,98.40 -6.95,99.35 -5.87,100.00"/>
    </edge>
    <edge id=":gneJ3_18" function="internal">
        <lane id=":gneJ3_18_0" index="0" speed="3.24" length="1.60" shape="-13.60,98.40 -13.60,100.00"/>
    </edge>
    <edge id=":gneJ3_26" function="internal">
        <lane id=":gneJ3_26_0" index="0" speed="11.36" length="14.60" shape="0.32,100.00 3.65,105.55 4.80,113.60"/>
    </edge>
    <edge id=":gneJ3_27" function="internal">
        <lane id=":gneJ3_27_0" index="0" speed="10.36" length="16.53" shape="-5.87,100.00 -2.20,102.20 0.65,106.95 1.60,113.60"/>
    </edge>
    <edge id=":gneJ3_28" function="internal">
        <lane id=":gneJ3_28_0" index="0" speed="3.24" length="1.60" shape="-13.60,100.00 -13.60,101.60"/>
    </edge>
    <edge id=":gneJ3_19" function="internal">
        <lane id=":gneJ3_19_0" index="0" speed="7.33" length="11.73" shape="-13.60,92.00 -9.75,91.65 -7.00,90.60 -5.35,88.85 -4.80,86.40"/>
    </edge>
    <edge id=":gneJ3_20" function="internal">
        <lane id=":gneJ3_20_0" index="0" speed="13.89" length="27.45" shape="-13.60,92.00 -5.50,92.50 -0.00,93.60 5.50,94.70 13.60,95.20"/>
        <lane id=":gneJ3_20_1" index="1" speed="13.89" length="27.45" shape="-13.60,95.20 -5.50,95.70 -0.00,96.80 5.50,97.90 13.60,98.40"/>
    </edge>
    <edge id=":gneJ3_22" function="internal">
        <lane id=":gneJ3_22_0" index="0" speed="13.89" length="27.20" shape="-13.60,95.20 13.60,95.20"/>
        <lane id=":gneJ3_22_1" index="1" speed="13.89" length="27.20" shape="-13.60,98.40 13.60,98.40"/>
    </edge>
    <edge id=":gneJ3_24" function="internal">
        <lane id=":gneJ3_24_0" index="0" speed="10.36" length="24.51" shape="-13.60,98.40 -6.95,99.35 -2.20,102.20 0.65,106.95 1.60,113.60"/>
    </edge>
    <edge id=":gneJ5_0" function="internal">
        <lane id=":gneJ5_0_0" index="0" speed="5.91" length="16.00" shape="-8.00,0.00 8.00,0.00"/>
        <lane id=":gneJ5_0_1" index="1" speed="4.77" length="9.60" shape="-4.80,0.00 4.80,0.00"/>
        <lane id=":gneJ5_0_2" index="2" speed="3.24" length="3.20" shape="-1.60,0.00 1.60,0.00"/>
    </edge>
    <edge id=":gneJ7_0" function="internal">
        <lane id=":gneJ7_0_0" index="0" speed="5.91" length="16.00" shape="92.00,0.00 108.00,0.00"/>
        <lane id=":gneJ7_0_1" index="1" speed="4.77" length="9.60" shape="95.20,0.00 104.80,0.00"/>
        <lane id=":gneJ7_0_2" index="2" speed="3.24" length="3.20" shape="98.40,0.00 101.60,0.00"/>
    </edge>
    <edge id=":gneJ8_0" function="internal">
        <lane id=":gneJ8_0_0" index="0" speed="5.91" length="16.00" shape="208.00,200.00 192.00,200.00"/>
        <lane id=":gneJ8_0_1" index="1" speed="4.77" length="9.60" shape="204.80,200.00 195.20,200.00"/>
        <lane id=":gneJ8_0_2" index="2" speed="3.24" length="3.20" shape="201.60,200.00 198.40,200.00"/>
    </edge>
    <edge id=":gneJ9_0" function="internal">
        <lane id=":gneJ9_0_0" index="0" speed="5.91" length="16.00" shape="192.00,0.00 208.00,0.00"/>
        <lane id=":gneJ9_0_1" index="1" speed="4.77" length="9.60" shape="195.20,0.00 204.80,0.00"/>
        <lane id=":gneJ9_0_2" index="2" speed="3.24" length="3.20" shape="198.40,0.00 201.60,0.00"/>
    </edge>

    <edge id="gneE0" from="gneJ0" to="gneJ1" priority="-1">
        <lane id="gneE0_0" index="0" speed="13.89" length="200.00" shape="-108.00,200.00 -108.00,0.00"/>
        <lane id="gneE0_1" index="1" speed="13.89" length="200.00" shape="-104.80,200.00 -104.80,0.00"/>
        <lane id="gneE0_2" index="2" speed="13.89" length="200.00" shape="-101.60,200.00 -101.60,0.00"/>
    </edge>
    <edge id="gneE1" from="gneJ2" to="gneJ3" priority="-1">
        <lane id="gneE1_0" index="0" speed="13.89" length="186.40" shape="-200.00,92.00 -13.60,92.00"/>
        <lane id="gneE1_1" index="1" speed="13.89" length="186.40" shape="-200.00,95.20 -13.60,95.20"/>
        <lane id="gneE1_2" index="2" speed="13.89" length="186.40" shape="-200.00,98.40 -13.60,98.40"/>
    </edge>
    <edge id="gneE10" from="gneJ12" to="gneJ3" priority="-1">
        <lane id="gneE10_0" index="0" speed="13.89" length="72.80" shape="86.40,108.00 13.60,108.00"/>
        <lane id="gneE10_1" index="1" speed="13.89" length="72.80" shape="86.40,104.80 13.60,104.80"/>
        <lane id="gneE10_2" index="2" speed="13.89" length="72.80" shape="86.40,101.60 13.60,101.60"/>
    </edge>
    <edge id="gneE11" from="gneJ3" to="gneJ12" priority="-1">
        <lane id="gneE11_0" index="0" speed="13.89" length="72.80" shape="13.60,92.00 86.40,92.00"/>
        <lane id="gneE11_1" index="1" speed="13.89" length="72.80" shape="13.60,95.20 86.40,95.20"/>
        <lane id="gneE11_2" index="2" speed="13.89" length="72.80" shape="13.60,98.40 86.40,98.40"/>
    </edge>
    <edge id="gneE12" from="gneJ3" to="gneJ5" priority="-1">
        <lane id="gneE12_0" index="0" speed="13.89" length="86.40" shape="-8.00,86.40 -8.00,0.00"/>
        <lane id="gneE12_1" index="1" speed="13.89" length="86.40" shape="-4.80,86.40 -4.80,0.00"/>
        <lane id="gneE12_2" index="2" speed="13.89" length="86.40" shape="-1.60,86.40 -1.60,0.00"/>
    </edge>
    <edge id="gneE13" from="gneJ5" to="gneJ3" priority="-1">
        <lane id="gneE13_0" index="0" speed="13.89" length="86.40" shape="8.00,0.00 8.00,86.40"/>
        <lane id="gneE13_1" index="1" speed="13.89" length="86.40" shape="4.80,0.00 4.80,86.40"/>
        <lane id="gneE13_2" index="2" speed="13.89" length="86.40" shape="1.60,0.00 1.60,86.40"/>
    </edge>
    <edge id="gneE14" from="gneJ3" to="gneJ4" priority="-1">
        <lane id="gneE14_0" index="0" speed="13.89" length="86.40" shape="8.00,113.60 8.00,200.00"/>
        <lane id="gneE14_1" index="1" speed="13.89" length="86.40" shape="4.80,113.60 4.80,200.00"/>
        <lane id="gneE14_2" index="2" speed="13.89" length="86.40" shape="1.60,113.60 1.60,200.00"/>
    </edge>
    <edge id="gneE15" from="gneJ13" to="gneJ0" priority="-1">
        <lane id="gneE15_0" index="0" speed="13.89" length="86.40" shape="-92.00,113.60 -92.00,200.00"/>
        <lane id="gneE15_1" index="1" speed="13.89" length="86.40" shape="-95.20,113.60 -95.20,200.00"/>
        <lane id="gneE15_2" index="2" speed="13.89" length="86.40" shape="-98.40,113.60 -98.40,200.00"/>
    </edge>
    <edge id="gneE16" from="gneJ13" to="gneJ1" priority="-1">
        <lane id="gneE16_0" index="0" speed="13.89" length="86.40" shape="-108.00,86.40 -108.00,0.00"/>
        <lane id="gneE16_1" index="1" speed="13.89" length="86.40" shape="-104.80,86.40 -104.80,0.00"/>
        <lane id="gneE16_2" index="2" speed="13.89" length="86.40" shape="-101.60,86.40 -101.60,0.00"/>
    </edge>
    <edge id="gneE17" from="gneJ1" to="gneJ13" priority="-1">
        <lane id="gneE17_0" index="0" speed="13.89" length="86.40" shape="-92.00,0.00 -92.00,86.40"/>
        <lane id="gneE17_1" index="1" speed="13.89" length="86.40" shape="-95.20,0.00 -95.20,86.40"/>
        <lane id="gneE17_2" index="2" speed="13.89" length="86.40" shape="-98.40,0.00 -98.40,86.40"/>
    </edge>
    <edge id="gneE18" from="gneJ2" to="gneJ13" priority="-1">
        <lane id="gneE18_0" index="0" speed="13.89" length="86.40" shape="-200.00,92.00 -113.60,92.00"/>
        <lane id="gneE18_1" index="1" speed="13.89" length="86.40" shape="-200.00,95.20 -113.60,95.20"/>
        <lane id="gneE18_2" index="2" speed="13.89" length="86.40" shape="-200.00,98.40 -113.60,98.40"/>
    </edge>
    <edge id="gneE19" from="gneJ13" to="gneJ2" priority="-1">
        <lane id="gneE19_0" index="0" speed="13.89" length="86.40" shape="-113.60,108.00 -200.00,108.00"/>
        <lane id="gneE19_1" index="1" speed="13.89" length="86.40" shape="-113.60,104.80 -200.00,104.80"/>
        <lane id="gneE19_2" index="2" speed="13.89" length="86.40" shape="-113.60,101.60 -200.00,101.60"/>
    </edge>
    <edge id="gneE2" from="gneJ4" to="gneJ5" priority="-1">
        <lane id="gneE2_0" index="0" speed="13.89" length="200.00" shape="-8.00,200.00 -8.00,0.00"/>
        <lane id="gneE2_1" index="1" speed="13.89" length="200.00" shape="-4.80,200.00 -4.80,0.00"/>
        <lane id="gneE2_2" index="2" speed="13.89" length="200.00" shape="-1.60,200.00 -1.60,0.00"/>
    </edge>
    <edge id="gneE20" from="gneJ13" to="gneJ3" priority="-1">
        <lane id="gneE20_0" index="0" speed="13.89" length="72.80" shape="-86.40,92.00 -13.60,92.00"/>
        <lane id="gneE20_1" index="1" speed="13.89" length="72.80" shape="-86.40,95.20 -13.60,95.20"/>
        <lane id="gneE20_2" index="2" speed="13.89" length="72.80" shape="-86.40,98.40 -13.60,98.40"/>
    </edge>
    <edge id="gneE21" from="gneJ3" to="gneJ13" priority="-1">
        <lane id="gneE21_0" index="0" speed="13.89" length="72.80" shape="-13.60,108.00 -86.40,108.00"/>
        <lane id="gneE21_1" index="1" speed="13.89" length="72.80" shape="-13.60,104.80 -86.40,104.80"/>
        <lane id="gneE21_2" index="2" speed="13.89" length="72.80" shape="-13.60,101.60 -86.40,101.60"/>
    </edge>
    <edge id="gneE22" from="gneJ12" to="gneJ10" priority="-1">
        <lane id="gneE22_0" index="0" speed="13.89" length="72.80" shape="113.60,92.00 186.40,92.00"/>
        <lane id="gneE22_1" index="1" speed="13.89" length="72.80" shape="113.60,95.20 186.40,95.20"/>
        <lane id="gneE22_2" index="2" speed="13.89" length="72.80" shape="113.60,98.40 186.40,98.40"/>
    </edge>
    <edge id="gneE23" from="gneJ10" to="gneJ12" priority="-1">
        <lane id="gneE23_0" index="0" speed="13.89" length="72.80" shape="186.40,108.00 113.60,108.00"/>
        <lane id="gneE23_1" index="1" speed="13.89" length="72.80" shape="186.40,104.80 113.60,104.80"/>
        <lane id="gneE23_2" index="2" speed="13.89" length="72.80" shape="186.40,101.60 113.60,101.60"/>
    </edge>
    <edge id="gneE24" from="gneJ8" to="gneJ10" priority="-1">
        <lane id="gneE24_0" index="0" speed="13.89" length="86.40" shape="192.00,200.00 192.00,113.60"/>
        <lane id="gneE24_1" index="1" speed="13.89" length="86.40" shape="195.20,200.00 195.20,113.60"/>
        <lane id="gneE24_2" index="2" speed="13.89" length="86.40" shape="198.40,200.00 198.40,113.60"/>
    </edge>
    <edge id="gneE25" from="gneJ10" to="gneJ8" priority="-1">
        <lane id="gneE25_0" index="0" speed="13.89" length="86.40" shape="208.00,113.60 208.00,200.00"/>
        <lane id="gneE25_1" index="1" speed="13.89" length="86.40" shape="204.80,113.60 204.80,200.00"/>
        <lane id="gneE25_2" index="2" speed="13.89" length="86.40" shape="201.60,113.60 201.60,200.00"/>
    </edge>
    <edge id="gneE26" from="gneJ10" to="gneJ9" priority="-1">
        <lane id="gneE26_0" index="0" speed="13.89" length="86.40" shape="192.00,86.40 192.00,0.00"/>
        <lane id="gneE26_1" index="1" speed="13.89" length="86.40" shape="195.20,86.40 195.20,0.00"/>
        <lane id="gneE26_2" index="2" speed="13.89" length="86.40" shape="198.40,86.40 198.40,0.00"/>
    </edge>
    <edge id="gneE27" from="gneJ9" to="gneJ10" priority="-1">
        <lane id="gneE27_0" index="0" speed="13.89" length="86.40" shape="208.00,0.00 208.00,86.40"/>
        <lane id="gneE27_1" index="1" speed="13.89" length="86.40" shape="204.80,0.00 204.80,86.40"/>
        <lane id="gneE27_2" index="2" speed="13.89" length="86.40" shape="201.60,0.00 201.60,86.40"/>
    </edge>
    <edge id="gneE28" from="gneJ10" to="gneJ14" priority="-1">
        <lane id="gneE28_0" index="0" speed="13.89" length="86.40" shape="213.60,92.00 300.00,92.00"/>
        <lane id="gneE28_1" index="1" speed="13.89" length="86.40" shape="213.60,95.20 300.00,95.20"/>
        <lane id="gneE28_2" index="2" speed="13.89" length="86.40" shape="213.60,98.40 300.00,98.40"/>
    </edge>
    <edge id="gneE29" from="gneJ14" to="gneJ10" priority="-1">
        <lane id="gneE29_0" index="0" speed="13.89" length="86.40" shape="300.00,108.00 213.60,108.00"/>
        <lane id="gneE29_1" index="1" speed="13.89" length="86.40" shape="300.00,104.80 213.60,104.80"/>
        <lane id="gneE29_2" index="2" speed="13.89" length="86.40" shape="300.00,101.60 213.60,101.60"/>
    </edge>
    <edge id="gneE3" from="gneJ6" to="gneJ7" priority="-1">
        <lane id="gneE3_0" index="0" speed="13.89" length="200.00" shape="92.00,200.00 92.00,0.00"/>
        <lane id="gneE3_1" index="1" speed="13.89" length="200.00" shape="95.20,200.00 95.20,0.00"/>
        <lane id="gneE3_2" index="2" speed="13.89" length="200.00" shape="98.40,200.00 98.40,0.00"/>
    </edge>
    <edge id="gneE4" from="gneJ8" to="gneJ9" priority="-1">
        <lane id="gneE4_0" index="0" speed="13.89" length="200.00" shape="192.00,200.00 192.00,0.00"/>
        <lane id="gneE4_1" index="1" speed="13.89" length="200.00" shape="195.20,200.00 195.20,0.00"/>
        <lane id="gneE4_2" index="2" speed="13.89" length="200.00" shape="198.40,200.00 198.40,0.00"/>
    </edge>
    <edge id="gneE5" from="gneJ3" to="gneJ10" priority="-1">
        <lane id="gneE5_0" index="0" speed="13.89" length="172.80" shape="13.60,92.00 186.40,92.00"/>
        <lane id="gneE5_1" index="1" speed="13.89" length="172.80" shape="13.60,95.20 186.40,95.20"/>
        <lane id="gneE5_2" index="2" speed="13.89" length="172.80" shape="13.60,98.40 186.40,98.40"/>
    </edge>
    <edge id="gneE7" from="gneJ12" to="gneJ6" priority="-1">
        <lane id="gneE7_0" index="0" speed="13.89" length="86.40" shape="108.00,113.60 108.00,200.00"/>
        <lane id="gneE7_1" index="1" speed="13.89" length="86.40" shape="104.80,113.60 104.80,200.00"/>
        <lane id="gneE7_2" index="2" speed="13.89" length="86.40" shape="101.60,113.60 101.60,200.00"/>
    </edge>
    <edge id="gneE8" from="gneJ12" to="gneJ7" priority="-1">
        <lane id="gneE8_0" index="0" speed="13.89" length="86.40" shape="92.00,86.40 92.00,0.00"/>
        <lane id="gneE8_1" index="1" speed="13.89" length="86.40" shape="95.20,86.40 95.20,0.00"/>
        <lane id="gneE8_2" index="2" speed="13.89" length="86.40" shape="98.40,86.40 98.40,0.00"/>
    </edge>
    <edge id="gneE9" from="gneJ7" to="gneJ12" priority="-1">