<?xml version="1.0" encoding="UTF-8"?>

<!-- generated on 2021-07-21 01:34:24 by Eclipse SUMO netedit Version 1.9.2
<configuration xmlns:xsi="http://www.w3.org/2001/XMLSchema-instance" xsi:noNamespaceSchemaLocation="http://sumo.dlr.de/xsd/netconvertConfiguration.xsd">

    <output>
        <output-file value="C:\Users\Mahsa\Desktop\Tasks\Crossroad\Deliver\Code\DRI-MSC\mynet8.net.xml"/>
    </output>

    <processing>
        <offset.disable-normalization value="true"/>
    </processing>

    <junctions>
        <no-turnarounds value="true"/>
    </junctions>

    <report>
        <aggregate-warnings value="5"/>
    </report>

</configuration>
-->

<net version="1.9" junctionCornerDetail="5" limitTurnSpeed="5.50" xmlns:xsi="http://www.w3.org/2001/XMLSchema-instance" xsi:noNamespaceSchemaLocation="http://sumo.dlr.de/xsd/net_file.xsd">

    <location netOffset="0.00,0.00" convBoundary="-300.00,-100.00,300.00,200.00" origBoundary="10000000000.00,10000000000.00,-10000000000.00,-10000000000.00" projParameter="!"/>

    <edge id=":gneJ14_0" function="internal">
        <lane id=":gneJ14_0_0" index="0" speed="5.91" length="16.00" shape="-300.00,108.00 -300.00,92.00"/>
        <lane id=":gneJ14_0_1" index="1" speed="4.77" length="9.60" shape="-300.00,104.80 -300.00,95.20"/>
        <lane id=":gneJ14_0_2" index="2" speed="3.24" length="3.20" shape="-300.00,101.60 -300.00,98.40"/>
    </edge>
    <edge id=":gneJ15_0" function="internal">
        <lane id=":gneJ15_0_0" index="0" speed="5.37" length="12.80" shape="300.00,92.00 300.00,104.80"/>
        <lane id=":gneJ15_0_1" index="1" speed="4.77" length="9.60" shape="300.00,92.00 300.00,101.60"/>
    </edge>
    <edge id=":gneJ15_2" function="internal">
        <lane id=":gneJ15_2_0" index="0" speed="5.37" length="12.80" shape="300.00,95.20 300.00,108.00"/>
        <lane id=":gneJ15_2_1" index="1" speed="4.08" length="6.40" shape="300.00,98.40 300.00,104.80"/>
    </edge>
    <edge id=":gneJ15_4" function="internal">
        <lane id=":gneJ15_4_0" index="0" speed="5.91" length="16.00" shape="300.00,92.00 300.00,108.00"/>
        <lane id=":gneJ15_4_1" index="1" speed="4.77" length="9.60" shape="300.00,95.20 300.00,104.80"/>
        <lane id=":gneJ15_4_2" index="2" speed="3.24" length="3.20" shape="300.00,98.40 300.00,101.60"/>
    </edge>
    <edge id=":gneJ15_7" function="internal">
        <lane id=":gneJ15_7_0" index="0" speed="5.91" length="16.00" shape="300.00,92.00 300.00,108.00"/>
        <lane id=":gneJ15_7_1" index="1" speed="4.77" length="9.60" shape="300.00,95.20 300.00,104.80"/>
        <lane id=":gneJ15_7_2" index="2" speed="3.24" length="3.20" shape="300.00,98.40 300.00,101.60"/>
    </edge>
    <edge id=":gneJ16_0" function="internal">
        <lane id=":gneJ16_0_0" index="0" speed="5.91" length="16.00" shape="-300.00,8.00 -300.00,-8.00"/>
        <lane id=":gneJ16_0_1" index="1" speed="4.77" length="9.60" shape="-300.00,4.80 -300.00,-4.80"/>
        <lane id=":gneJ16_0_2" index="2" speed="3.24" length="3.20" shape="-300.00,1.60 -300.00,-1.60"/>
    </edge>
    <edge id=":gneJ17_0" function="internal">
        <lane id=":gneJ17_0_0" index="0" speed="5.37" length="12.80" shape="300.00,-8.00 300.00,4.80"/>
        <lane id=":gneJ17_0_1" index="1" speed="4.77" length="9.60" shape="300.00,-8.00 300.00,1.60"/>
    </edge>
    <edge id=":gneJ17_2" function="internal">
        <lane id=":gneJ17_2_0" index="0" speed="4.77" length="9.60" shape="300.00,-4.80 300.00,4.80"/>
        <lane id=":gneJ17_2_1" index="1" speed="3.24" length="3.20" shape="300.00,-1.60 300.00,1.60"/>
    </edge>
    <edge id=":gneJ17_4" function="internal">
        <lane id=":gneJ17_4_0" index="0" speed="5.91" length="16.00" shape="300.00,-8.00 300.00,8.00"/>
        <lane id=":gneJ17_4_1" index="1" speed="4.77" length="9.60" shape="300.00,-4.80 300.00,4.80"/>
        <lane id=":gneJ17_4_2" index="2" speed="3.24" length="3.20" shape="300.00,-1.60 300.00,1.60"/>
    </edge>
    <edge id=":gneJ17_7" function="internal">
        <lane id=":gneJ17_7_0" index="0" speed="5.91" length="16.00" shape="300.00,-8.00 300.00,8.00"/>
        <lane id=":gneJ17_7_1" index="1" speed="4.77" length="9.60" shape="300.00,-4.80 300.00,4.80"/>
        <lane id=":gneJ17_7_2" index="2" speed="3.24" length="3.20" shape="300.00,-1.60 300.00,1.60"/>
    </edge>
    <edge id=":gneJ18_0" function="internal">
        <lane id=":gneJ18_0_0" index="0" speed="5.91" length="16.00" shape="-192.00,200.00 -208.00,200.00"/>
        <lane id=":gneJ18_0_1" index="1" speed="4.77" length="9.60" shape="-195.20,200.00 -204.80,200.00"/>
        <lane id=":gneJ18_0_2" index="2" speed="3.24" length="3.20" shape="-198.40,200.00 -201.60,200.00"/>
    </edge>
    <edge id=":gneJ19_0" function="internal">
        <lane id=":gneJ19_0_0" index="0" speed="5.91" length="16.00" shape="-208.00,-100.00 -192.00,-100.00"/>
        <lane id=":gneJ19_0_1" index="1" speed="4.77" length="9.60" shape="-204.80,-100.00 -195.20,-100.00"/>
        <lane id=":gneJ19_0_2" index="2" speed="3.24" length="3.20" shape="-201.60,-100.00 -198.40,-100.00"/>
    </edge>
    <edge id=":gneJ20_0" function="internal">
        <lane id=":gneJ20_0_0" index="0" speed="5.91" length="16.00" shape="-92.00,200.00 -108.00,200.00"/>
        <lane id=":gneJ20_0_1" index="1" speed="4.77" length="9.60" shape="-95.20,200.00 -104.80,200.00"/>
        <lane id=":gneJ20_0_2" index="2" speed="3.24" length="3.20" shape="-98.40,200.00 -101.60,200.00"/>
    </edge>
    <edge id=":gneJ21_0" function="internal">
        <lane id=":gneJ21_0_0" index="0" speed="5.91" length="16.00" shape="-108.00,-100.00 -92.00,-100.00"/>
        <lane id=":gneJ21_0_1" index="1" speed="4.77" length="9.60" shape="-104.80,-100.00 -95.20,-100.00"/>
        <lane id=":gneJ21_0_2" index="2" speed="3.24" length="3.20" shape="-101.60,-100.00 -98.40,-100.00"/>
    </edge>
    <edge id=":gneJ22_0" function="internal">
        <lane id=":gneJ22_0_0" index="0" speed="5.91" length="16.00" shape="8.00,200.00 -8.00,200.00"/>
        <lane id=":gneJ22_0_1" index="1" speed="4.77" length="9.60" shape="4.80,200.00 -4.80,200.00"/>
        <lane id=":gneJ22_0_2" index="2" speed="3.24" length="3.20" shape="1.60,200.00 -1.60,200.00"/>
    </edge>
    <edge id=":gneJ23_0" function="internal">
        <lane id=":gneJ23_0_0" index="0" speed="5.91" length="16.00" shape="-8.00,-100.00 8.00,-100.00"/>
        <lane id=":gneJ23_0_1" index="1" speed="4.77" length="9.60" shape="-4.80,-100.00 4.80,-100.00"/>
        <lane id=":gneJ23_0_2" index="2" speed="3.24" length="3.20" shape="-1.60,-100.00 1.60,-100.00"/>
    </edge>
    <edge id=":gneJ24_0" function="internal">
        <lane id=":gneJ24_0_0" index="0" speed="5.91" length="16.00" shape="108.00,200.00 92.00,200.00"/>
        <lane id=":gneJ24_0_1" index="1" speed="4.77" length="9.60" shape="104.80,200.00 95.20,200.00"/>
        <lane id=":gneJ24_0_2" index="2" speed="3.24" length="3.20" shape="101.60,200.00 98.40,200.00"/>
    </edge>
    <edge id=":gneJ25_0" function="internal">
        <lane id=":gneJ25_0_0" index="0" speed="5.91" length="16.00" shape="92.00,-100.00 108.00,-100.00"/>
        <lane id=":gneJ25_0_1" index="1" speed="4.77" length="9.60" shape="95.20,-100.00 104.80,-100.00"/>
        <lane id=":gneJ25_0_2" index="2" speed="3.24" length="3.20" shape="98.40,-100.00 101.60,-100.00"/>
    </edge>
    <edge id=":gneJ26_0" function="internal">
        <lane id=":gneJ26_0_0" index="0" speed="6.51" length="9.03" shape="-208.00,113.60 -208.35,111.15 -209.40,109.40 -211.15,108.35 -213.60,108.00"/>
    </edge>
    <edge id=":gneJ26_1" function="internal">
        <lane id=":gneJ26_1_0" index="0" speed="13.89" length="27.20" shape="-208.00,113.60 -208.00,86.40"/>
        <lane id=":gneJ26_1_1" index="1" speed="13.89" length="27.20" shape="-204.80,113.60 -204.80,86.40"/>
        <lane id=":gneJ26_1_2" index="2" speed="13.89" length="27.20" shape="-201.60,113.60 -201.60,86.40"/>
    </edge>
    <edge id=":gneJ26_4" function="internal">
        <lane id=":gneJ26_4_0" index="0" speed="10.36" length="7.98" shape="-201.60,113.60 -200.65,106.95 -200.00,105.87"/>
    </edge>
    <edge id=":gneJ26_20" function="internal">
        <lane id=":gneJ26_20_0" index="0" speed="10.36" length="16.53" shape="-200.00,105.87 -197.80,102.20 -193.05,99.35 -186.40,98.40"/>
    </edge>
    <edge id=":gneJ26_5" function="internal">
        <lane id=":gneJ26_5_0" index="0" speed="6.51" length="9.03" shape="-186.40,108.00 -188.85,108.35 -190.60,109.40 -191.65,111.15 -192.00,113.60"/>
    </edge>
    <edge id=":gneJ26_6" function="internal">
        <lane id=":gneJ26_6_0" index="0" speed="13.89" length="27.20" shape="-186.40,108.00 -213.60,108.00"/>
        <lane id=":gneJ26_6_1" index="1" speed="13.89" length="27.20" shape="-186.40,104.80 -213.60,104.80"/>
        <lane id=":gneJ26_6_2" index="2" speed="13.89" length="27.20" shape="-186.40,101.60 -213.60,101.60"/>
    </edge>
    <edge id=":gneJ26_9" function="internal">
        <lane id=":gneJ26_9_0" index="0" speed="10.36" length="7.98" shape="-186.40,101.60 -193.05,100.65 -194.13,100.00"/>
    </edge>
    <edge id=":gneJ26_21" function="internal">
        <lane id=":gneJ26_21_0" index="0" speed="10.36" length="16.53" shape="-194.13,100.00 -197.80,97.80 -200.65,93.05 -201.60,86.40"/>
    </edge>
    <edge id=":gneJ26_10" function="internal">
        <lane id=":gneJ26_10_0" index="0" speed="6.51" length="9.03" shape="-192.00,86.40 -191.65,88.85 -190.60,90.60 -188.85,91.65 -186.40,92.00"/>
    </edge>
    <edge id=":gneJ26_11" function="internal">
        <lane id=":gneJ26_11_0" index="0" speed="13.89" length="27.20" shape="-192.00,86.40 -192.00,113.60"/>
        <lane id=":gneJ26_11_1" index="1" speed="13.89" length="27.20" shape="-195.20,86.40 -195.20,113.60"/>
        <lane id=":gneJ26_11_2" index="2" speed="13.89" length="27.20" shape="-198.40,86.40 -198.40,113.60"/>
    </edge>
    <edge id=":gneJ26_14" function="internal">
        <lane id=":gneJ26_14_0" index="0" speed="10.36" length="7.98" shape="-198.40,86.40 -199.35,93.05 -200.00,94.13"/>
    </edge>
    <edge id=":gneJ26_22" function="internal">
        <lane id=":gneJ26_22_0" index="0" speed="10.36" length="16.53" shape="-200.00,94.13 -202.20,97.80 -206.95,100.65 -213.60,101.60"/>
    </edge>
    <edge id=":gneJ26_15" function="internal">
        <lane id=":gneJ26_15_0" index="0" speed="6.51" length="9.03" shape="-213.60,92.00 -211.15,91.65 -209.40,90.60 -208.35,88.85 -208.00,86.40"/>
    </edge>
    <edge id=":gneJ26_16" function="internal">
        <lane id=":gneJ26_16_0" index="0" speed="13.89" length="27.20" shape="-213.60,92.00 -186.40,92.00"/>
        <lane id=":gneJ26_16_1" index="1" speed="13.89" length="27.20" shape="-213.60,95.20 -186.40,95.20"/>
        <lane id=":gneJ26_16_2" index="2" speed="13.89" length="27.20" shape="-213.60,98.40 -186.40,98.40"/>
    </edge>
    <edge id=":gneJ26_19" function="internal">
        <lane id=":gneJ26_19_0" index="0" speed="10.36" length="7.98" shape="-213.60,98.40 -206.95,99.35 -205.87,100.00"/>
    </edge>
    <edge id=":gneJ26_23" function="internal">
        <lane id=":gneJ26_23_0" index="0" speed="10.36" length="16.53" shape="-205.87,100.00 -202.20,102.20 -199.35,106.95 -198.40,113.60"/>
    </edge>
    <edge id=":gneJ27_0" function="internal">
        <lane id=":gneJ27_0_0" index="0" speed="6.51" length="9.03" shape="-208.00,13.60 -208.35,11.15 -209.40,9.40 -211.15,8.35 -213.60,8.00"/>
    </edge>
    <edge id=":gneJ27_1" function="internal">
        <lane id=":gneJ27_1_0" index="0" speed="13.89" length="27.20" shape="-208.00,13.60 -208.00,-13.60"/>
        <lane id=":gneJ27_1_1" index="1" speed="13.89" length="27.20" shape="-204.80,13.60 -204.80,-13.60"/>
        <lane id=":gneJ27_1_2" index="2" speed="13.89" length="27.20" shape="-201.60,13.60 -201.60,-13.60"/>
    </edge>
    <edge id=":gneJ27_4" function="internal">
        <lane id=":gneJ27_4_0" index="0" speed="10.36" length="7.98" shape="-201.60,13.60 -200.65,6.95 -200.00,5.87"/>
    </edge>
    <edge id=":gneJ27_20" function="internal">
        <lane id=":gneJ27_20_0" index="0" speed="10.36" length="16.53" shape="-200.00,5.87 -197.80,2.20 -193.05,-0.65 -186.40,-1.60"/>
    </edge>
    <edge id=":gneJ27_5" function="internal">
        <lane id=":gneJ27_5_0" index="0" speed="6.51" length="9.03" shape="-186.40,8.00 -188.85,8.35 -190.60,9.40 -191.65,11.15 -192.00,13.60"/>
    </edge>
    <edge id=":gneJ27_6" function="internal">
        <lane id=":gneJ27_6_0" index="0" speed="13.89" length="27.20" shape="-186.40,8.00 -213.60,8.00"/>
        <lane id=":gneJ27_6_1" index="1" speed="13.89" length="27.20" shape="-186.40,4.80 -213.60,4.80"/>
        <lane id=":gneJ27_6_2" index="2" speed="13.89" length="27.20" shape="-186.40,1.60 -213.60,1.60"/>
    </edge>
    <edge id=":gneJ27_9" function="internal">
        <lane id=":gneJ27_9_0" index="0" speed="10.36" length="7.98" shape="-186.40,1.60 -193.05,0.65 -194.13,-0.00"/>
    </edge>
    <edge id=":gneJ27_21" function="internal">
        <lane id=":gneJ27_21_0" index="0" speed="10.36" length="16.53" shape="-194.13,-0.00 -197.80,-2.20 -200.65,-6.95 -201.60,-13.60"/>
    </edge>
    <edge id=":gneJ27_10" function="internal">
        <lane id=":gneJ27_10_0" index="0" speed="6.51" length="9.03" shape="-192.00,-13.60 -191.65,-11.15 -190.60,-9.40 -188.85,-8.35 -186.40,-8.00"/>
    </edge>
    <edge id=":gneJ27_11" function="internal">
        <lane id=":gneJ27_11_0" index="0" speed="13.89" length="27.20" shape="-192.00,-13.60 -192.00,13.60"/>
        <lane id=":gneJ27_11_1" index="1" speed="13.89" length="27.20" shape="-195.20,-13.60 -195.20,13.60"/>
        <lane id=":gneJ27_11_2" index="2" speed="13.89" length="27.20" shape="-198.40,-13.60 -198.40,13.60"/>
    </edge>
    <edge id=":gneJ27_14" function="internal">
        <lane id=":gneJ27_14_0" index="0" speed="10.36" length="7.98" shape="-198.40,-13.60 -199.35,-6.95 -200.00,-5.87"/>
    </edge>
    <edge id=":gneJ27_22" function="internal">
        <lane id=":gneJ27_22_0" index="0" speed="10.36" length="16.53" shape="-200.00,-5.87 -202.20,-2.20 -206.95,0.65 -213.60,1.60"/>
    </edge>
    <edge id=":gneJ27_15" function="internal">
        <lane id=":gneJ27_15_0" index="0" speed="6.51" length="9.03" shape="-213.60,-8.00 -211.15,-8.35 -209.40,-9.40 -208.35,-11.15 -208.00,-13.60"/>
    </edge>
    <edge id=":gneJ27_16" function="internal">
        <lane id=":gneJ27_16_0" index="0" speed="13.89" length="27.20" shape="-213.60,-8.00 -186.40,-8.00"/>
        <lane id=":gneJ27_16_1" index="1" speed="13.89" length="27.20" shape="-213.60,-4.80 -186.40,-4.80"/>
        <lane id=":gneJ27_16_2" index="2" speed="13.89" length="27.20" shape="-213.60,-1.60 -186.40,-1.60"/>
    </edge>
    <edge id=":gneJ27_19" function="internal">
        <lane id=":gneJ27_19_0" index="0" speed="10.36" length="7.98" shape="-213.60,-1.60 -206.95,-0.65 -205.87,0.00"/>
    </edge>
    <edge id=":gneJ27_23" function="internal">
        <lane id=":gneJ27_23_0" index="0" speed="10.36" length="16.53" shape="-205.87,0.00 -202.20,2.20 -199.35,6.95 -198.40,13.60"/>
    </edge>
    <edge id=":gneJ28_0" function="internal">
        <lane id=":gneJ28_0_0" index="0" speed="6.51" length="9.03" shape="-108.00,113.60 -108.35,111.15 -109.40,109.40 -111.15,108.35 -113.60,108.00"/>
    </edge>
    <edge id=":gneJ28_1" function="internal">
        <lane id=":gneJ28_1_0" index="0" speed="13.89" length="27.20" shape="-108.00,113.60 -108.00,86.40"/>
        <lane id=":gneJ28_1_1" index="1" speed="13.89" length="27.20" shape="-104.80,113.60 -104.80,86.40"/>
        <lane id=":gneJ28_1_2" index="2" speed="13.89" length="27.20" shape="-101.60,113.60 -101.60,86.40"/>
    </edge>
    <edge id=":gneJ28_4" function="internal">
        <lane id=":gneJ28_4_0" index="0" speed="10.36" length="7.98" shape="-101.60,113.60 -100.65,106.95 -100.00,105.87"/>
    </edge>
    <edge id=":gneJ28_20" function="internal">
        <lane id=":gneJ28_20_0" index="0" speed="10.36" length="16.53" shape="-100.00,105.87 -97.80,102.20 -93.05,99.35 -86.40,98.40"/>
    </edge>
    <edge id=":gneJ28_5" function="internal">
        <lane id=":gneJ28_5_0" index="0" speed="6.51" length="9.03" shape="-86.40,108.00 -88.85,108.35 -90.60,109.40 -91.65,111.15 -92.00,113.60"/>
    </edge>
    <edge id=":gneJ28_6" function="internal">
        <lane id=":gneJ28_6_0" index="0" speed="13.89" length="27.20" shape="-86.40,108.00 -113.60,108.00"/>
        <lane id=":gneJ28_6_1" index="1" speed="13.89" length="27.20" shape="-86.40,104.80 -113.60,104.80"/>
        <lane id=":gneJ28_6_2" index="2" speed="13.89" length="27.20" shape="-86.40,101.60 -113.60,101.60"/>
    </edge>
    <edge id=":gneJ28_9" function="internal">
        <lane id=":gneJ28_9_0" index="0" speed="10.36" length="7.98" shape="-86.40,101.60 -93.05,100.65 -94.13,100.00"/>
    </edge>
    <edge id=":gneJ28_21" function="internal">
        <lane id=":gneJ28_21_0" index="0" speed="10.36" length="16.53" shape="-94.13,100.00 -97.80,97.80 -100.65,93.05 -101.60,86.40"/>
    </edge>
    <edge id=":gneJ28_10" function="internal">
        <lane id=":gneJ28_10_0" index="0" speed="6.51" length="9.03" shape="-92.00,86.40 -91.65,88.85 -90.60,90.60 -88.85,91.65 -86.40,92.00"/>
    </edge>
    <edge id=":gneJ28_11" function="internal">
        <lane id=":gneJ28_11_0" index="0" speed="13.89" length="27.20" shape="-92.00,86.40 -92.00,113.60"/>
        <lane id=":gneJ28_11_1" index="1" speed="13.89" length="27.20" shape="-95.20,86.40 -95.20,113.60"/>
        <lane id=":gneJ28_11_2" index="2" speed="13.89" length="27.20" shape="-98.40,86.40 -98.40,113.60"/>
    </edge>
    <edge id=":gneJ28_14" function="internal">
        <lane id=":gneJ28_14_0" index="0" speed="10.36" length="7.98" shape="-98.40,86.40 -99.35,93.05 -100.00,94.13"/>
    </edge>
    <edge id=":gneJ28_22" function="internal">
        <lane id=":gneJ28_22_0" index="0" speed="10.36" length="16.53" shape="-100.00,94.13 -102.20,97.80 -106.95,100.65 -113.60,101.60"/>
    </edge>
    <edge id=":gneJ28_15" function="internal">
        <lane id=":gneJ28_15_0" index="0" speed="6.51" length="9.03" shape="-113.60,92.00 -111.15,91.65 -109.40,90.60 -108.35,88.85 -108.00,86.40"/>
    </edge>
    <edge id=":gneJ28_16" function="internal">
        <lane id=":gneJ28_16_0" index="0" speed="13.89" length="27.20" shape="-113.60,92.00 -86.40,92.00"/>
        <lane id=":gneJ28_16_1" index="1" speed="13.89" length="27.20" shape="-113.60,95.20 -86.40,95.20"/>
        <lane id=":gneJ28_16_2" index="2" speed="13.89" length="27.20" shape="-113.60,98.40 -86.40,98.40"/>
    </edge>
    <edge id=":gneJ28_19" function="internal">
        <lane id=":gneJ28_19_0" index="0" speed="10.36" length="7.98" shape="-113.60,98.40 -106.95,99.35 -105.87,100.00"/>
    </edge>
    <edge id=":gneJ28_23" function="internal">
        <lane id=":gneJ28_23_0" index="0" speed="10.36" length="16.53" shape="-105.87,100.00 -102.20,102.20 -99.35,106.95 -98.40,113.60"/>
    </edge>
    <edge id=":gneJ29_0" function="internal">
        <lane id=":gneJ29_0_0" index="0" speed="6.51" length="9.03" shape="-108.00,13.60 -108.35,11.15 -109.40,9.40 -111.15,8.35 -113.60,8.00"/>
    </edge>
    <edge id=":gneJ29_1" function="internal">
        <lane id=":gneJ29_1_0" index="0" speed="13.89" length="27.20" shape="-108.00,13.60 -108.00,-13.60"/>
        <lane id=":gneJ29_1_1" index="1" speed="13.89" length="27.20" shape="-104.80,13.60 -104.80,-13.60"/>
        <lane id=":gneJ29_1_2" index="2" speed="13.89" length="27.20" shape="-101.60,13.60 -101.60,-13.60"/>
    </edge>
    <edge id=":gneJ29_4" function="internal">
        <lane id=":gneJ29_4_0" index="0" speed="10.36" length="7.98" shape="-101.60,13.60 -100.65,6.95 -100.00,5.87"/>
    </edge>
    <edge id=":gneJ29_20" function="internal">
        <lane id=":gneJ29_20_0" index="0" speed="10.36" length="16.53" shape="-100.00,5.87 -97.80,2.20 -93.05,-0.65 -86.40,-1.60"/>
    </edge>
    <edge id=":gneJ29_5" function="internal">
        <lane id=":gneJ29_5_0" index="0" speed="6.51" length="9.03" shape="-86.40,8.00 -88.85,8.35 -90.60,9.40 -91.65,11.15 -92.00,13.60"/>
    </edge>
    <edge id=":gneJ29_6" function="internal">
        <lane id=":gneJ29_6_0" index="0" speed="13.89" length="27.20" shape="-86.40,8.00 -113.60,8.00"/>
        <lane id=":gneJ29_6_1" index="1" speed="13.89" length="27.20" shape="-86.40,4.80 -113.60,4.80"/>
        <lane id=":gneJ29_6_2" index="2" speed="13.89" length="27.20" shape="-86.40,1.60 -113.60,1.60"/>
    </edge>
    <edge id=":gneJ29_9" function="internal">
        <lane id=":gneJ29_9_0" index="0" speed="10.36" length="7.98" shape="-86.40,1.60 -93.05,0.65 -94.13,0.00"/>
    </edge>
    <edge id=":gneJ29_21" function="internal">
        <lane id=":gneJ29_21_0" index="0" speed="10.36" length="16.53" shape="-94.13,0.00 -97.80,-2.20 -100.65,-6.95 -101.60,-13.60"/>
    </edge>
    <edge id=":gneJ29_10" function="internal">
        <lane id=":gneJ29_10_0" index="0" speed="6.51" length="9.03" shape="-92.00,-13.60 -91.65,-11.15 -90.60,-9.40 -88.85,-8.35 -86.40,-8.00"/>
    </edge>
    <edge id=":gneJ29_11" function="internal">
        <lane id=":gneJ29_11_0" index="0" speed="13.89" length="27.20" shape="-92.00,-13.60 -92.00,13.60"/>
        <lane id=":gneJ29_11_1" index="1" speed="13.89" length="27.20" shape="-95.20,-13.60 -95.20,13.60"/>
        <lane id=":gneJ29_11_2" index="2" speed="13.89" length="27.20" shape="-98.40,-13.60 -98.40,13.60"/>
    </edge>
    <edge id=":gneJ29_14" function="internal">
        <lane id=":gneJ29_14_0" index="0" speed="10.36" length="7.98" shape="-98.40,-13.60 -99.35,-6.95 -100.00,-5.87"/>
    </edge>
    <edge id=":gneJ29_22" function="internal">
        <lane id=":gneJ29_22_0" index="0" speed="10.36" length="16.53" shape="-100.00,-5.87 -102.20,-2.20 -106.95,0.65 -113.60,1.60"/>
    </edge>
    <edge id=":gneJ29_15" function="internal">
        <lane id=":gneJ29_15_0" index="0" speed="6.51" length="9.03" shape="-113.60,-8.00 -111.15,-8.35 -109.40,-9.40 -108.35,-11.15 -108.00,-13.60"/>
    </edge>
    <edge id=":gneJ29_16" function="internal">
        <lane id=":gneJ29_16_0" index="0" speed="13.89" length="27.20" shape="-113.60,-8.00 -86.40,-8.00"/>
        <lane id=":gneJ29_16_1" index="1" speed="13.89" length="27.20" shape="-113.60,-4.80 -86.40,-4.80"/>
        <lane id=":gneJ29_16_2" index="2" speed="13.89" length="27.20" shape="-113.60,-1.60 -86.40,-1.60"/>
    </edge>
    <edge id=":gneJ29_19" function="internal">
        <lane id=":gneJ29_19_0" index="0" speed="10.36" length="7.98" shape="-113.60,-1.60 -106.95,-0.65 -105.87,-0.00"/>
    </edge>
    <edge id=":gneJ29_23" function="internal">
        <lane id=":gneJ29_23_0" index="0" speed="10.36" length="16.53" shape="-105.87,-0.00 -102.20,2.20 -99.35,6.95 -98.40,13.60"/>
    </edge>
    <edge id=":gneJ30_0" function="internal">
        <lane id=":gneJ30_0_0" index="0" speed="6.51" length="9.03" shape="-8.00,113.60 -8.35,111.15 -9.40,109.40 -11.15,108.35 -13.60,108.00"/>
    </edge>
    <edge id=":gneJ30_1" function="internal">
        <lane id=":gneJ30_1_0" index="0" speed="13.89" length="27.20" shape="-8.00,113.60 -8.00,86.40"/>
        <lane id=":gneJ30_1_1" index="1" speed="13.89" length="27.20" shape="-4.80,113.60 -4.80,86.40"/>
        <lane id=":gneJ30_1_2" index="2" speed="13.89" length="27.20" shape="-1.60,113.60 -1.60,86.40"/>
    </edge>
    <edge id=":gneJ30_4" function="internal">
        <lane id=":gneJ30_4_0" index="0" speed="10.36" length="7.98" shape="-1.60,113.60 -0.65,106.95 -0.00,105.87"/>
    </edge>
    <edge id=":gneJ30_20" function="internal">
        <lane id=":gneJ30_20_0" index="0" speed="10.36" length="16.53" shape="-0.00,105.87 2.20,102.20 6.95,99.35 13.60,98.40"/>
    </edge>
    <edge id=":gneJ30_5" function="internal">
        <lane id=":gneJ30_5_0" index="0" speed="6.51" length="9.03" shape="13.60,108.00 11.15,108.35 9.40,109.40 8.35,111.15 8.00,113.60"/>
    </edge>
    <edge id=":gneJ30_6" function="internal">
        <lane id=":gneJ30_6_0" index="0" speed="13.89" length="27.20" shape="13.60,108.00 -13.60,108.00"/>
        <lane id=":gneJ30_6_1" index="1" speed="13.89" length="27.20" shape="13.60,104.80 -13.60,104.80"/>
        <lane id=":gneJ30_6_2" index="2" speed="13.89" length="27.20" shape="13.60,101.60 -13.60,101.60"/>
    </edge>
    <edge id=":gneJ30_9" function="internal">
        <lane id=":gneJ30_9_0" index="0" speed="10.36" length="7.98" shape="13.60,101.60 6.95,100.65 5.87,100.00"/>
    </edge>
    <edge id=":gneJ30_21" function="internal">
        <lane id=":gneJ30_21_0" index="0" speed="10.36" length="16.53" shape="5.87,100.00 2.20,97.80 -0.65,93.05 -1.60,86.40"/>
    </edge>
    <edge id=":gneJ30_10" function="internal">
        <lane id=":gneJ30_10_0" index="0" speed="6.51" length="9.03" shape="8.00,86.40 8.35,88.85 9.40,90.60 11.15,91.65 13.60,92.00"/>
    </edge>
    <edge id=":gneJ30_11" function="internal">
        <lane id=":gneJ30_11_0" index="0" speed="13.89" length="27.20" shape="8.00,86.40 8.00,113.60"/>
        <lane id=":gneJ30_11_1" index="1" speed="13.89" length="27.20" shape="4.80,86.40 4.80,113.60"/>
        <lane id=":gneJ30_11_2" index="2" speed="13.89" length="27.20" shape="1.60,86.40 1.60,113.60"/>
    </edge>
    <edge id=":gneJ30_14" function="internal">
        <lane id=":gneJ30_14_0" index="0" speed="10.36" length="7.98" shape="1.60,86.40 0.65,93.05 0.00,94.13"/>
    </edge>
    <edge id=":gneJ30_22" function="internal">
        <lane id=":gneJ30_22_0" index="0" speed="10.36" length="16.53" shape="0.00,94.13 -2.20,97.80 -6.95,100.65 -13.60,101.60"/>
    </edge>
    <edge id=":gneJ30_15" function="internal">
        <lane id=":gneJ30_15_0" index="0" speed="6.51" length="9.03" shape="-13.60,92.00 -11.15,91.65 -9.40,90.60 -8.35,88.85 -8.00,86.40"/>
    </edge>
    <edge id=":gneJ30_16" function="internal">
        <lane id=":gneJ30_16_0" index="0" speed="13.89" length="27.20" shape="-13.60,92.00 13.60,92.00"/>
        <lane id=":gneJ30_16_1" index="1" speed="13.89" length="27.20" shape="-13.60,95.20 13.60,95.20"/>
        <lane id=":gneJ30_16_2" index="2" speed="13.89" length="27.20" shape="-13.60,98.40 13.60,98.40"/>
    </edge>
    <edge id=":gneJ30_19" function="internal">
        <lane id=":gneJ30_19_0" index="0" speed="10.36" length="7.98" shape="-13.60,98.40 -6.95,99.35 -5.87,100.00"/>
    </edge>
    <edge id=":gneJ30_23" function="internal">
        <lane id=":gneJ30_23_0" index="0" speed="10.36" length="16.53" shape="-5.87,100.00 -2.20,102.20 0.65,106.95 1.60,113.60"/>
    </edge>
    <edge id=":gneJ31_0" function="internal">
        <lane id=":gneJ31_0_0" index="0" speed="6.51" length="9.03" shape="-8.00,13.60 -8.35,11.15 -9.40,9.40 -11.15,8.35 -13.60,8.00"/>
    </edge>
    <edge id=":gneJ31_1" function="internal">
        <lane id=":gneJ31_1_0" index="0" speed="13.89" length="27.20" shape="-8.00,13.60 -8.00,-13.60"/>
        <lane id=":gneJ31_1_1" index="1" speed="13.89" length="27.20" shape="-4.80,13.60 -4.80,-13.60"/>
        <lane id=":gneJ31_1_2" index="2" speed="13.89" length="27.20" shape="-1.60,13.60 -1.60,-13.60"/>
    </edge>
    <edge id=":gneJ31_4" function="internal">
        <lane id=":gneJ31_4_0" index="0" speed="10.36" length="7.98" shape="-1.60,13.60 -0.65,6.95 -0.00,5.87"/>
    </edge>
    <edge id=":gneJ31_20" function="internal">
        <lane id=":gneJ31_20_0" index="0" speed="10.36" length="16.53" shape="-0.00,5.87 2.20,2.20 6.95,-0.65 13.60,-1.60"/>
    </edge>
    <edge id=":gneJ31_5" function="internal">
        <lane id=":gneJ31_5_0" index="0" speed="6.51" length="9.03" shape="13.60,8.00 11.15,8.35 9.40,9.40 8.35,11.15 8.00,13.60"/>
    </edge>
    <edge id=":gneJ31_6" function="internal">
        <lane id=":gneJ31_6_0" index="0" speed="13.89" length="27.20" shape="13.60,8.00 -13.60,8.00"/>
        <lane id=":gneJ31_6_1" index="1" speed="13.89" length="27.20" shape="13.60,4.80 -13.60,4.80"/>
        <lane id=":gneJ31_6_2" index="2" speed="13.89" length="27.20" shape="13.60,1.60 -13.60,1.60"/>
    </edge>
    <edge id=":gneJ31_9" function="internal">
        <lane id=":gneJ31_9_0" index="0" speed="10.36" length="7.98" shape="13.60,1.60 6.95,0.65 5.87,0.00"/>
    </edge>
    <edge id=":gneJ31_21" function="internal">
        <lane id=":gneJ31_21_0" index="0" speed="10.36" length="16.53" shape="5.87,0.00 2.20,-2.20 -0.65,-6.95 -1.60,-13.60"/>
    </edge>
    <edge id=":gneJ31_10" function="internal">
        <lane id=":gneJ31_10_0" index="0" speed="6.51" length="9.03" shape="8.00,-13.60 8.35,-11.15 9.40,-9.40 11.15,-8.35 13.60,-8.00"/>
    </edge>
    <edge id=":gneJ31_11" function="internal">
        <lane id=":gneJ31_11_0" index="0" speed="13.89" length="27.20" shape="8.00,-13.60 8.00,13.60"/>
        <lane id=":gneJ31_11_1" index="1" speed="13.89" length="27.20" shape="4.80,-13.60 4.80,13.60"/>
        <lane id=":gneJ31_11_2" index="2" speed="13.89" length="27.20" shape="1.60,-13.60 1.60,13.60"/>
    </edge>
    <edge id=":gneJ31_14" function="internal">
        <lane id=":gneJ31_14_0" index="0" speed="10.36" length="7.98" shape="1.60,-13.60 0.65,-6.95 0.00,-5.87"/>
    </edge>
    <edge id=":gneJ31_22" function="internal">
        <lane id=":gneJ31_22_0" index="0" speed="10.36" length="16.53" shape="0.00,-5.87 -2.20,-2.20 -6.95,0.65 -13.60,1.60"/>
    </edge>
    <edge id=":gneJ31_15" function="internal">
        <lane id=":gneJ31_15_0" index="0" speed="6.51" length="9.03" shape="-13.60,-8.00 -11.15,-8.35 -9.40,-9.40 -8.35,-11.15 -8.00,-13.60"/>
    </edge>
    <edge id=":gneJ31_16" function="internal">
        <lane id=":gneJ31_16_0" index="0" speed="13.89" length="27.20" shape="-13.60,-8.00 13.60,-8.00"/>
        <lane id=":gneJ31_16_1" index="1" speed="13.89" length="27.20" shape="-13.60,-4.80 13.60,-4.80"/>
        <lane id=":gneJ31_16_2" index="2" speed="13.89" length="27.20" shape="-13.60,-1.60 13.60,-1.60"/>
    </edge>
    <edge id=":gneJ31_19" function="internal">