<?xml version="1.0" encoding="UTF-8"?>

<!-- generated on 2021-07-20 07:16:54 by Eclipse SUMO duarouter Version 1.9.2
<configuration xmlns:xsi="http://www.w3.org/2001/XMLSchema-instance" xsi:noNamespaceSchemaLocation="http://sumo.dlr.de/xsd/duarouterConfiguration.xsd">

    <input>
        <net-file value="mynet7.net.xml"/>
        <route-files value="trips.trips.xml"/>
    </input>

    <output>
        <output-file value="myroute7.rou.xml"/>
        <alternatives-output value="myroute7.rou.alt.xml"/>
    </output>

    <time>
        <begin value="0"/>
        <end value="50"/>
    </time>

    <report>
        <no-warnings value="true"/>
        <ignore-errors value="true"/>
        <no-step-log value="true"/>
    </report>

</configuration>
-->

<routes xmlns:xsi="http://www.w3.org/2001/XMLSchema-instance" xsi:noNamespaceSchemaLocation="http://sumo.dlr.de/xsd/routes_file.xsd">
    <vehicle id="0" depart="0.00">
        <route edges="gneE25 gneE4 gneE27 gneE23 gneE10 gneE21 gneE19 gneE1"/>
    </vehicle>
    <vehicle id="2" depart="2.00">
        <route edges="gneE3 gneE9 gneE22 gneE28"/>
    </vehicle>
    <vehicle id="3" depart="3.00">
        <route edges="gneE5 gneE23 gneE10"/>
    </vehicle>
    <vehicle id="4" depart="4.00">
        <route edges="gneE2 gneE13 gneE21 gneE19 gneE1"/>
    </vehicle>
    <vehicle id="5" depart="5.00">
        <route edges="gneE11 gneE22"/>
    </vehicle>
    <vehicle id="7" depart="7.00">
        <route edges="gneE27 gneE23"/>
    </vehicle>
    <vehicle id="8" depart="8.00">
        <route edges="gneE11 gneE22 gneE25"/>
    </vehicle>
    <vehicle id="9" depart="9.00">
        <route edges="gneE4 gneE27 gneE23 gneE10 gneE21 gneE19 gneE1"/>
    </vehicle>
    <vehicle id="10" depart="10.00">
        <route edges="gneE3 gneE9 gneE22 gneE28"/>
    </vehicle>
    <vehicle id="11" depart="11.00">
        <route edges="gneE19 gneE1 gneE12"/>
    </vehicle>
    <vehicle id="12" depart="12.00">
        <route edges="gneE5 gneE23 gneE10 gneE21 gneE16"/>
    </vehicle>
    <vehicle id="13" depart="13.00">
        <route edges="gneE1 gneE5 gneE23 gneE10"/>
    </vehicle>
    <vehicle id="14" depart="14.00">
        <route edges="gneE4 gneE27 gneE23 gneE10 gneE5 gneE26"/>
    </vehicle>
    <vehicle id="15" depart="15.00">
        <route edges="gneE4"/>
    </vehicle>
    <vehicle id="17" depart="17.00">
        <route edges="gneE2 gneE13 gneE5 gneE23"/>
    </vehicle>
    <vehicle id="18" depart="18.00">
        <route edges="gneE4 gneE27 gneE23 gneE10 gneE5 gneE26"/>
    </vehicle>
    <vehicle id="19" depart="19.00">
        <route edges="gneE4 gneE27 gneE25"/>
    </vehicle>
    <vehicle id="20" depart="20.00">
        <route edges="gneE29 gneE23 gneE10 gneE21 gneE19 gneE1"/>
    </vehicle>
    <vehicle id="21" depart="21.00">
        <route edges="gneE13 gneE21 gneE15"/>
    </vehicle>
    <vehicle id="22" depart="22.00">
        <route edges="gneE0 gneE17 gneE20 gneE14"/>
    </vehicle>
    <vehicle id="23" depart="23.00">
        <route edges="gneE1 gneE21 gneE15"/>
    </vehicle>
    <vehicle id="25" depart="25.00">
        <route edges="gneE2 gneE13"/>
    </vehicle>
    <vehicle id="26" depart="26.00">
        <route edges="gneE17 gneE20 gneE11 gneE8"/>
    </vehicle>
    <vehicle id="27" depart="27.00">
        <route edges="gneE25 gneE4 gneE27 gneE23 gneE10 gneE5 gneE26"/>
    </vehicle>
    <vehicle id="28" depart="28.00">
        <route edges="gneE10 gneE5 gneE25 gneE4"/>
    </vehicle>
    <vehicle id="30" depart="30.00">
        <route edges="gneE9 gneE22 gneE25 gneE4 gneE27"/>
    </vehicle>
    <vehicle id="31" depart="31.00">
        <route edges="gneE23 gneE10 gneE5 gneE28"/>
    </vehicle>
    <vehicle id="32" depart="32.00">
        <route edges="gneE4"/>
    </vehicle>
    <vehicle id="33" depart="33.00">
        <route edges="gneE13 gneE21 gneE19 gneE1"/>
    </vehicle>
    <vehicle id="34" depart="34.00">
        <route edges="gneE18 gneE20 gneE14"/>
    </vehicle>
    <vehicle id="35" depart="35.00">
        <route edges="gneE11 gneE8"/>
    </vehicle>
    <vehicle id="36" depart="36.00">
        <route edges="gneE4 gneE27 gneE23 gneE10 gneE21 gneE16"/>
    </vehicle>
    <vehicle id="37" depart="37.00">
        <route edges="gneE27 gneE23 gneE10 gneE21 gneE19"/>
    </vehicle>
    <vehicle id="38" depart="38.00">
        <route edges="gneE5 gneE23 gneE10 gneE21"/>
    </vehicle>
    <vehicle id="39" depart="39.00">
        <route edges="gneE17 gneE20 gneE14"/>
    </vehicle>
    <vehicle id="40" depart="40.00">
        <route edges="gneE23 gneE10 gneE14"/>
    </vehicle>
    <vehicle id="41" depart="41.00">
        <route edges="gneE24 gneE23 gneE7"/>
    </vehicle>
    <vehicle id="42" depart="42.00">
        <route edges="gneE2 gneE13"/>
    </vehicle>
    <vehicle id="43" depart="43.00">
        <route edges="gneE9 gneE22"/>
    </vehicle>
    <vehicle id="44" depart="44.00">
        <route edges="gneE1"/>
    </vehicle>
    <vehicle id="45" depart="45.00">
        <route edges="gneE1 gneE11 gneE22 gneE26"/>
    </vehicle>
    <vehicle id="46" depart="46.00">
        <route edges="gneE3 gneE9 gneE10 gneE21 gneE19"/>
    </vehicle>
    <vehicle id="47" depart="47.00">
        <route edges="gneE0 gneE17"/>
    </vehicle>
    <vehicle id="48" depart="48.00">
        <route edges="gneE9 gneE10 gneE5 gneE23"/>
    </vehicle>
    <vehicle id="49" depart="49.00">
        <route edges="gneE9 gneE10 gneE5"/>
    </vehicle>
</routes>
